@<TRIPOS>MOLECULE
289 Control
48   51    1
SMALL
USER_CHARGES


@<TRIPOS>ATOM
      1 C1        -14.7090    3.7530   49.6890 C.ar      1 UNK         0.0000 
      2 C2        -15.1850    1.4410   50.1650 C.ar      1 UNK         0.0000 
      3 N3        -14.3490    5.0890   49.8600 N.pl3     1 UNK         0.0000 
      4 N4        -15.2860    0.3550   51.0660 N.am      1 UNK         0.0000 
      5 C5        -15.1265    0.3844   52.4255 C.2       1 UNK         0.0000 
      6 N6        -14.9250    4.7590   47.7340 N.2       1 UNK         0.0000 
      7 C7        -14.4870    5.6350   48.6660 C.ar      1 UNK         0.0000 
      8 O8        -15.0559    1.4052   53.0771 O.2       1 UNK         0.0000 
      9 C9        -15.1402   -0.9642   53.0866 C.ar      1 UNK         0.0000 
     10 C10       -14.2883   -1.1821   54.1697 C.ar      1 UNK         0.0000 
     11 C11       -14.2784   -2.4057   54.8360 C.ar      1 UNK         0.0000 
     12 C12       -15.1782   -3.4183   54.4343 C.ar      1 UNK         0.0000 
     13 C13       -16.0506   -3.1738   53.3628 C.ar      1 UNK         0.0000 
     14 C14       -16.0237   -1.9637   52.6754 C.ar      1 UNK         0.0000 
     15 C15       -14.7510    2.6980   50.5970 C.ar      1 UNK         0.0000 
     16 C16       -15.5830    1.2480   48.8340 C.ar      1 UNK         0.0000 
     17 C17       -15.5390    2.2970   47.9230 C.ar      1 UNK         0.0000 
     18 C18       -15.0880    3.5390   48.3670 C.ar      1 UNK         0.0000 
     19 C19       -14.1440    7.0510   48.3310 C.3       1 UNK         0.0000 
     20 H20       -14.0635    5.4227   50.7696 H         1 UNK         0.0000 
     21 H21       -15.5097   -0.5871   50.6974 H         1 UNK         0.0000 
     22 H22       -13.6245   -0.3998   54.5031 H         1 UNK         0.0000 
     23 H23       -13.5957   -2.5587   55.6602 H         1 UNK         0.0000 
     24 H24       -16.6785   -1.7989   51.8303 H         1 UNK         0.0000 
     25 H25       -14.4503    2.8556   51.6222 H         1 UNK         0.0000 
     26 H26       -15.9276    0.2775   48.5087 H         1 UNK         0.0000 
     27 H27       -15.8496    2.1380   46.9009 H         1 UNK         0.0000 
     28 H28       -14.2464    7.6694   49.2227 H         1 UNK         0.0000 
     29 H29       -14.8579    7.4340   47.6018 H         1 UNK         0.0000 
     30 H30       -16.7589   -3.9442   53.0908 H         1 UNK         0.0000 
     31 Cl31      -15.1955   -4.9379   55.2610 Cl        1 UNK         0.0000 
     32 C32       -11.1482    8.8577   46.8051 C.3       1 UNK         0.0000 
     33 C33       -12.5333    8.6808   47.4476 C.3       1 UNK         0.0000 
     34 N34       -12.8093    7.2014   47.7609 N.4       1 UNK         0.0000 
     35 C35       -12.6753    6.3372   46.4968 C.3       1 UNK         0.0000 
     36 C36       -11.2902    6.5141   45.8542 C.3       1 UNK         0.0000 
     37 C37       -11.0140    7.9935   45.5409 C.3       1 UNK         0.0000 
     38 H38       -10.3582    8.5678   47.5390 H         1 UNK         0.0000 
     39 H39       -10.9792    9.9328   46.5521 H         1 UNK         0.0000 
     40 H40       -13.3175    9.0660   46.7522 H         1 UNK         0.0000 
     41 H41       -12.6005    9.2882   48.3831 H         1 UNK         0.0000 
     42 H42       -12.8402    5.2884   46.7434 H         1 UNK         0.0000 
     43 H43       -13.4464    6.6204   45.7803 H         1 UNK         0.0000 
     44 H44       -10.5060    6.1289   46.5495 H         1 UNK         0.0000 
     45 H45       -11.2230    5.9068   44.9187 H         1 UNK         0.0000 
     46 H46       -11.7365    8.3508   44.7680 H         1 UNK         0.0000 
     47 H47        -9.9905    8.1074   45.1075 H         1 UNK         0.0000 
     48 H48       -12.1321    6.8849   48.4400 H         1 UNK         0.0000 
@<TRIPOS>BOND
     1    1    3 ar   
     2    1   15 ar   
     3    1   18 ar   
     4    2    4 1    
     5    2   15 ar   
     6    2   16 ar   
     7    3    7 ar   
     8    3   20 1    
     9    4    5 am   BACKBONE|DICT|INTERRES
    10    4   21 1    
    11    5    8 2    
    12    5    9 1    
    13    6    7 ar   
    14    6   18 ar   
    15    7   19 1    
    16    9   10 ar   
    17    9   14 ar   
    18   10   11 ar   
    19   10   22 1    
    20   11   12 ar   
    21   11   23 1    
    22   12   13 ar   
    23   12   31 1    
    24   13   14 ar   
    25   13   30 1    
    26   14   24 1    
    27   15   25 1    
    28   16   17 ar   
    29   16   26 1    
    30   17   18 ar   
    31   17   27 1    
    32   19   28 1    
    33   19   29 1    
    34   19   34 1    
    35   32   33 1    
    36   32   37 1    
    37   32   38 1    
    38   32   39 1    
    39   33   34 1    
    40   33   40 1    
    41   33   41 1    
    42   34   35 1    
    43   34   48 1    
    44   35   36 1    
    45   35   42 1    
    46   35   43 1    
    47   36   37 1    
    48   36   44 1    
    49   36   45 1    
    50   37   46 1    
    51   37   47 1    
@<TRIPOS>SUBSTRUCTURE
     1 UNK         1 GROUP             0       ****    0 ROOT    
@<TRIPOS>MOLECULE
206
54   57    1
SMALL
USER_CHARGES


@<TRIPOS>ATOM
      1 C1        -14.7090    3.7530   49.6890 C.ar      1 UNK         0.0000 
      2 C2        -15.1850    1.4410   50.1650 C.ar      1 UNK         0.0000 
      3 N3        -14.3490    5.0890   49.8600 N.pl3     1 UNK         0.0000 
      4 N4        -15.2860    0.3550   51.0660 N.am      1 UNK         0.0000 
      5 C5        -15.1265    0.3844   52.4255 C.2       1 UNK         0.0000 
      6 N6        -14.9250    4.7590   47.7340 N.2       1 UNK         0.0000 
      7 C7        -14.4870    5.6350   48.6660 C.ar      1 UNK         0.0000 
      8 O8        -15.0559    1.4052   53.0771 O.2       1 UNK         0.0000 
      9 C9        -15.1402   -0.9642   53.0866 C.ar      1 UNK         0.0000 
     10 C10       -14.2883   -1.1821   54.1697 C.ar      1 UNK         0.0000 
     11 C11       -14.2784   -2.4057   54.8360 C.ar      1 UNK         0.0000 
     12 C12       -15.1782   -3.4183   54.4343 C.ar      1 UNK         0.0000 
     13 C13       -16.0506   -3.1738   53.3628 C.ar      1 UNK         0.0000 
     14 C14       -16.0237   -1.9637   52.6754 C.ar      1 UNK         0.0000 
     15 C15       -14.7510    2.6980   50.5970 C.ar      1 UNK         0.0000 
     16 C16       -15.5830    1.2480   48.8340 C.ar      1 UNK         0.0000 
     17 C17       -15.5390    2.2970   47.9230 C.ar      1 UNK         0.0000 
     18 C18       -15.0880    3.5390   48.3670 C.ar      1 UNK         0.0000 
     19 C19       -14.1440    7.0510   48.3310 C.3       1 UNK         0.0000 
     20 H20       -14.0635    5.4227   50.7696 H         1 UNK         0.0000 
     21 H21       -15.5097   -0.5871   50.6974 H         1 UNK         0.0000 
     22 H22       -13.6245   -0.3998   54.5031 H         1 UNK         0.0000 
     23 H23       -13.5957   -2.5587   55.6602 H         1 UNK         0.0000 
     24 H24       -16.6785   -1.7989   51.8303 H         1 UNK         0.0000 
     25 H25       -14.4503    2.8556   51.6222 H         1 UNK         0.0000 
     26 H26       -15.9276    0.2775   48.5087 H         1 UNK         0.0000 
     27 H27       -15.8496    2.1380   46.9009 H         1 UNK         0.0000 
     28 H28       -14.2464    7.6694   49.2227 H         1 UNK         0.0000 
     29 H29       -14.8579    7.4340   47.6018 H         1 UNK         0.0000 
     30 H30       -16.7589   -3.9442   53.0908 H         1 UNK         0.0000 
     31 C31       -11.1482    8.8577   46.8051 C.3       1 UNK         0.0000 
     32 C32       -12.5333    8.6808   47.4476 C.3       1 UNK         0.0000 
     33 N33       -12.8093    7.2014   47.7609 N.4       1 UNK         0.0000 
     34 C34       -12.6753    6.3372   46.4968 C.3       1 UNK         0.0000 
     35 C35       -11.2902    6.5141   45.8542 C.3       1 UNK         0.0000 
     36 C36       -11.0140    7.9935   45.5409 C.3       1 UNK         0.0000 
     37 H37       -10.3582    8.5678   47.5390 H         1 UNK         0.0000 
     38 H38       -10.9792    9.9328   46.5521 H         1 UNK         0.0000 
     39 H39       -13.3175    9.0660   46.7522 H         1 UNK         0.0000 
     40 H40       -12.6005    9.2882   48.3831 H         1 UNK         0.0000 
     41 H41       -12.8402    5.2884   46.7434 H         1 UNK         0.0000 
     42 H42       -13.4464    6.6204   45.7803 H         1 UNK         0.0000 
     43 H43       -10.5060    6.1289   46.5495 H         1 UNK         0.0000 
     44 H44       -11.2230    5.9068   44.9187 H         1 UNK         0.0000 
     45 H45       -11.7365    8.3508   44.7680 H         1 UNK         0.0000 
     46 H46        -9.9905    8.1074   45.1075 H         1 UNK         0.0000 
     47 H47       -12.1321    6.8849   48.4400 H         1 UNK         0.0000 
     48 C48       -15.1929   -4.7034   55.1334 C.2       1 UNK         0.0000 
     49 O49       -15.9590   -5.5744   54.7965 O.2       1 UNK         0.0000 
     50 O50       -14.3304   -4.9053   56.1707 O.3       1 UNK         0.0000 
     51 C51       -14.5757   -6.2137   56.6354 C.3       1 UNK         0.0000 
     52 H52       -13.8931   -6.4391   57.4928 H         1 UNK         0.0000 
     53 H53       -15.6391   -6.2961   56.9736 H         1 UNK         0.0000 
     54 H54       -14.3897   -6.9442   55.8085 H         1 UNK         0.0000 
@<TRIPOS>BOND
     1    1    3 ar   
     2    1   15 ar   
     3    1   18 ar   
     4    2    4 1    
     5    2   15 ar   
     6    2   16 ar   
     7    3    7 ar   
     8    3   20 1    
     9    4    5 am   BACKBONE|DICT|INTERRES
    10    4   21 1    
    11    5    8 2    
    12    5    9 1    
    13    6    7 ar   
    14    6   18 ar   
    15    7   19 1    
    16    9   10 ar   
    17    9   14 ar   
    18   10   11 ar   
    19   10   22 1    
    20   11   12 ar   
    21   11   23 1    
    22   12   13 ar   
    23   12   48 1    
    24   13   14 ar   
    25   13   30 1    
    26   14   24 1    
    27   15   25 1    
    28   16   17 ar   
    29   16   26 1    
    30   17   18 ar   
    31   17   27 1    
    32   19   28 1    
    33   19   29 1    
    34   19   33 1    
    35   31   32 1    
    36   31   36 1    
    37   31   37 1    
    38   31   38 1    
    39   32   33 1    
    40   32   39 1    
    41   32   40 1    
    42   33   34 1    
    43   33   47 1    
    44   34   35 1    
    45   34   41 1    
    46   34   42 1    
    47   35   36 1    
    48   35   43 1    
    49   35   44 1    
    50   36   45 1    
    51   36   46 1    
    52   48   49 2    
    53   48   50 1    
    54   50   51 1    
    55   51   52 1    
    56   51   53 1    
    57   51   54 1    
@<TRIPOS>SUBSTRUCTURE
     1 UNK         1 GROUP             0       ****    0 ROOT    
@<TRIPOS>MOLECULE
275
48   51    1
SMALL
USER_CHARGES


@<TRIPOS>ATOM
      1 C1        -14.7090    3.7530   49.6890 C.ar      1 UNK         0.0000 
      2 C2        -15.1850    1.4410   50.1650 C.ar      1 UNK         0.0000 
      3 N3        -14.3490    5.0890   49.8600 N.pl3     1 UNK         0.0000 
      4 N4        -15.2860    0.3550   51.0660 N.am      1 UNK         0.0000 
      5 C5        -15.1265    0.3844   52.4255 C.2       1 UNK         0.0000 
      6 N6        -14.9250    4.7590   47.7340 N.2       1 UNK         0.0000 
      7 C7        -14.4870    5.6350   48.6660 C.ar      1 UNK         0.0000 
      8 O8        -15.0559    1.4052   53.0771 O.2       1 UNK         0.0000 
      9 C9        -15.1402   -0.9642   53.0866 C.ar      1 UNK         0.0000 
     10 C10       -14.2883   -1.1821   54.1697 C.ar      1 UNK         0.0000 
     11 C11       -14.2784   -2.4057   54.8360 C.ar      1 UNK         0.0000 
     12 C12       -15.1782   -3.4183   54.4343 C.ar      1 UNK         0.0000 
     13 C13       -16.0506   -3.1738   53.3628 C.ar      1 UNK         0.0000 
     14 C14       -16.0237   -1.9637   52.6754 C.ar      1 UNK         0.0000 
     15 C15       -14.7510    2.6980   50.5970 C.ar      1 UNK         0.0000 
     16 C16       -15.5830    1.2480   48.8340 C.ar      1 UNK         0.0000 
     17 C17       -15.5390    2.2970   47.9230 C.ar      1 UNK         0.0000 
     18 C18       -15.0880    3.5390   48.3670 C.ar      1 UNK         0.0000 
     19 C19       -14.1440    7.0510   48.3310 C.3       1 UNK         0.0000 
     20 H20       -14.0635    5.4227   50.7696 H         1 UNK         0.0000 
     21 H21       -15.5097   -0.5871   50.6974 H         1 UNK         0.0000 
     22 H22       -13.6245   -0.3998   54.5031 H         1 UNK         0.0000 
     23 H23       -13.5957   -2.5587   55.6602 H         1 UNK         0.0000 
     24 Cl24      -17.0709   -1.7001   51.3238 Cl        1 UNK         0.0000 
     25 H25       -14.4503    2.8556   51.6222 H         1 UNK         0.0000 
     26 H26       -15.9276    0.2775   48.5087 H         1 UNK         0.0000 
     27 H27       -15.8496    2.1380   46.9009 H         1 UNK         0.0000 
     28 H28       -14.2464    7.6694   49.2227 H         1 UNK         0.0000 
     29 H29       -14.8579    7.4340   47.6018 H         1 UNK         0.0000 
     30 H30       -16.7589   -3.9442   53.0908 H         1 UNK         0.0000 
     31 H31       -15.1890   -4.3670   54.9504 H         1 UNK         0.0000 
     32 C32       -11.1482    8.8577   46.8051 C.3       1 UNK         0.0000 
     33 C33       -12.5333    8.6808   47.4476 C.3       1 UNK         0.0000 
     34 N34       -12.8093    7.2014   47.7609 N.4       1 UNK         0.0000 
     35 C35       -12.6753    6.3372   46.4968 C.3       1 UNK         0.0000 
     36 C36       -11.2902    6.5141   45.8542 C.3       1 UNK         0.0000 
     37 C37       -11.0140    7.9935   45.5409 C.3       1 UNK         0.0000 
     38 H38       -10.3582    8.5678   47.5390 H         1 UNK         0.0000 
     39 H39       -10.9792    9.9328   46.5521 H         1 UNK         0.0000 
     40 H40       -13.3175    9.0660   46.7522 H         1 UNK         0.0000 
     41 H41       -12.6005    9.2882   48.3831 H         1 UNK         0.0000 
     42 H42       -12.8402    5.2884   46.7434 H         1 UNK         0.0000 
     43 H43       -13.4464    6.6204   45.7803 H         1 UNK         0.0000 
     44 H44       -10.5060    6.1289   46.5495 H         1 UNK         0.0000 
     45 H45       -11.2230    5.9068   44.9187 H         1 UNK         0.0000 
     46 H46       -11.7365    8.3508   44.7680 H         1 UNK         0.0000 
     47 H47        -9.9905    8.1074   45.1075 H         1 UNK         0.0000 
     48 H48       -12.1321    6.8849   48.4400 H         1 UNK         0.0000 
@<TRIPOS>BOND
     1    1    3 ar   
     2    1   15 ar   
     3    1   18 ar   
     4    2    4 1    
     5    2   15 ar   
     6    2   16 ar   
     7    3    7 ar   
     8    3   20 1    
     9    4    5 am   BACKBONE|DICT|INTERRES
    10    4   21 1    
    11    5    8 2    
    12    5    9 1    
    13    6    7 ar   
    14    6   18 ar   
    15    7   19 1    
    16    9   10 ar   
    17    9   14 ar   
    18   10   11 ar   
    19   10   22 1    
    20   11   12 ar   
    21   11   23 1    
    22   12   13 ar   
    23   12   31 1    
    24   13   14 ar   
    25   13   30 1    
    26   14   24 1    
    27   15   25 1    
    28   16   17 ar   
    29   16   26 1    
    30   17   18 ar   
    31   17   27 1    
    32   19   28 1    
    33   19   29 1    
    34   19   34 1    
    35   32   33 1    
    36   32   37 1    
    37   32   38 1    
    38   32   39 1    
    39   33   34 1    
    40   33   40 1    
    41   33   41 1    
    42   34   35 1    
    43   34   48 1    
    44   35   36 1    
    45   35   42 1    
    46   35   43 1    
    47   36   37 1    
    48   36   44 1    
    49   36   45 1    
    50   37   46 1    
    51   37   47 1    
@<TRIPOS>SUBSTRUCTURE
     1 UNK         1 GROUP             0       ****    0 ROOT    
@<TRIPOS>MOLECULE
277
51   54    1
SMALL
USER_CHARGES


@<TRIPOS>ATOM
      1 C1        -14.7090    3.7530   49.6890 C.ar      1 UNK         0.0000 
      2 C2        -15.1850    1.4410   50.1650 C.ar      1 UNK         0.0000 
      3 N3        -14.3490    5.0890   49.8600 N.pl3     1 UNK         0.0000 
      4 N4        -15.2860    0.3550   51.0660 N.am      1 UNK         0.0000 
      5 C5        -15.1265    0.3844   52.4255 C.2       1 UNK         0.0000 
      6 N6        -14.9250    4.7590   47.7340 N.2       1 UNK         0.0000 
      7 C7        -14.4870    5.6350   48.6660 C.ar      1 UNK         0.0000 
      8 O8        -15.0559    1.4052   53.0771 O.2       1 UNK         0.0000 
      9 C9        -15.1402   -0.9642   53.0866 C.ar      1 UNK         0.0000 
     10 C10       -14.2883   -1.1821   54.1697 C.ar      1 UNK         0.0000 
     11 C11       -14.2784   -2.4057   54.8360 C.ar      1 UNK         0.0000 
     12 C12       -15.1782   -3.4183   54.4343 C.ar      1 UNK         0.0000 
     13 C13       -16.0506   -3.1738   53.3628 C.ar      1 UNK         0.0000 
     14 C14       -16.0237   -1.9637   52.6754 C.ar      1 UNK         0.0000 
     15 C15       -14.7510    2.6980   50.5970 C.ar      1 UNK         0.0000 
     16 C16       -15.5830    1.2480   48.8340 C.ar      1 UNK         0.0000 
     17 C17       -15.5390    2.2970   47.9230 C.ar      1 UNK         0.0000 
     18 C18       -15.0880    3.5390   48.3670 C.ar      1 UNK         0.0000 
     19 C19       -14.1440    7.0510   48.3310 C.3       1 UNK         0.0000 
     20 H20       -14.0635    5.4227   50.7696 H         1 UNK         0.0000 
     21 H21       -15.5097   -0.5871   50.6974 H         1 UNK         0.0000 
     22 H22       -13.6245   -0.3998   54.5031 H         1 UNK         0.0000 
     23 H23       -13.5957   -2.5587   55.6602 H         1 UNK         0.0000 
     24 H24       -14.4503    2.8556   51.6222 H         1 UNK         0.0000 
     25 H25       -15.9276    0.2775   48.5087 H         1 UNK         0.0000 
     26 H26       -15.8496    2.1380   46.9009 H         1 UNK         0.0000 
     27 H27       -14.2464    7.6694   49.2227 H         1 UNK         0.0000 
     28 H28       -14.8579    7.4340   47.6018 H         1 UNK         0.0000 
     29 H29       -16.7589   -3.9442   53.0908 H         1 UNK         0.0000 
     30 H30       -15.1890   -4.3670   54.9504 H         1 UNK         0.0000 
     31 C31       -11.1482    8.8577   46.8051 C.3       1 UNK         0.0000 
     32 C32       -12.5333    8.6808   47.4476 C.3       1 UNK         0.0000 
     33 N33       -12.8093    7.2014   47.7609 N.4       1 UNK         0.0000 
     34 C34       -12.6753    6.3372   46.4968 C.3       1 UNK         0.0000 
     35 C35       -11.2902    6.5141   45.8542 C.3       1 UNK         0.0000 
     36 C36       -11.0140    7.9935   45.5409 C.3       1 UNK         0.0000 
     37 H37       -10.3582    8.5678   47.5390 H         1 UNK         0.0000 
     38 H38       -10.9792    9.9328   46.5521 H         1 UNK         0.0000 
     39 H39       -13.3175    9.0660   46.7522 H         1 UNK         0.0000 
     40 H40       -12.6005    9.2882   48.3831 H         1 UNK         0.0000 
     41 H41       -12.8402    5.2884   46.7434 H         1 UNK         0.0000 
     42 H42       -13.4464    6.6204   45.7803 H         1 UNK         0.0000 
     43 H43       -10.5060    6.1289   46.5495 H         1 UNK         0.0000 
     44 H44       -11.2230    5.9068   44.9187 H         1 UNK         0.0000 
     45 H45       -11.7365    8.3508   44.7680 H         1 UNK         0.0000 
     46 H46        -9.9905    8.1074   45.1075 H         1 UNK         0.0000 
     47 H47       -12.1321    6.8849   48.4400 H         1 UNK         0.0000 
     48 C48       -16.9450   -1.7318   51.4863 C.3       1 UNK         0.0000 
     49 H49       -17.5711   -2.6434   51.3162 H         1 UNK         0.0000 
     50 H50       -17.6098   -0.8563   51.6948 H         1 UNK         0.0000 
     51 H51       -16.3314   -1.5252   50.5738 H         1 UNK         0.0000 
@<TRIPOS>BOND
     1    1    3 ar   
     2    1   15 ar   
     3    1   18 ar   
     4    2    4 1    
     5    2   15 ar   
     6    2   16 ar   
     7    3    7 ar   
     8    3   20 1    
     9    4    5 am   BACKBONE|DICT|INTERRES
    10    4   21 1    
    11    5    8 2    
    12    5    9 1    
    13    6    7 ar   
    14    6   18 ar   
    15    7   19 1    
    16    9   10 ar   
    17    9   14 ar   
    18   10   11 ar   
    19   10   22 1    
    20   11   12 ar   
    21   11   23 1    
    22   12   13 ar   
    23   12   30 1    
    24   13   14 ar   
    25   13   29 1    
    26   14   48 1    
    27   15   24 1    
    28   16   17 ar   
    29   16   25 1    
    30   17   18 ar   
    31   17   26 1    
    32   19   27 1    
    33   19   28 1    
    34   19   33 1    
    35   31   32 1    
    36   31   36 1    
    37   31   37 1    
    38   31   38 1    
    39   32   33 1    
    40   32   39 1    
    41   32   40 1    
    42   33   34 1    
    43   33   47 1    
    44   34   35 1    
    45   34   41 1    
    46   34   42 1    
    47   35   36 1    
    48   35   43 1    
    49   35   44 1    
    50   36   45 1    
    51   36   46 1    
    52   48   49 1    
    53   48   50 1    
    54   48   51 1    
@<TRIPOS>SUBSTRUCTURE
     1 UNK         1 GROUP             0       ****    0 ROOT    
@<TRIPOS>MOLECULE
303
58   62    1
SMALL
USER_CHARGES


@<TRIPOS>ATOM
      1 C1        -14.7090    3.7530   49.6890 C.ar      1 UNK         0.0000 
      2 C2        -15.1850    1.4410   50.1650 C.ar      1 UNK         0.0000 
      3 N3        -14.3490    5.0890   49.8600 N.pl3     1 UNK         0.0000 
      4 N4        -15.2860    0.3550   51.0660 N.am      1 UNK         0.0000 
      5 C5        -15.1265    0.3844   52.4255 C.2       1 UNK         0.0000 
      6 N6        -14.9250    4.7590   47.7340 N.2       1 UNK         0.0000 
      7 C7        -14.4870    5.6350   48.6660 C.ar      1 UNK         0.0000 
      8 O8        -15.0559    1.4052   53.0771 O.2       1 UNK         0.0000 
      9 C9        -15.1402   -0.9642   53.0866 C.ar      1 UNK         0.0000 
     10 C10       -14.2883   -1.1821   54.1697 C.ar      1 UNK         0.0000 
     11 C11       -14.2784   -2.4057   54.8360 C.ar      1 UNK         0.0000 
     12 C12       -15.1782   -3.4183   54.4343 C.ar      1 UNK         0.0000 
     13 C13       -16.0506   -3.1738   53.3628 C.ar      1 UNK         0.0000 
     14 C14       -16.0237   -1.9637   52.6754 C.ar      1 UNK         0.0000 
     15 C15       -14.7510    2.6980   50.5970 C.ar      1 UNK         0.0000 
     16 C16       -15.5830    1.2480   48.8340 C.ar      1 UNK         0.0000 
     17 C17       -15.5390    2.2970   47.9230 C.ar      1 UNK         0.0000 
     18 C18       -15.0880    3.5390   48.3670 C.ar      1 UNK         0.0000 
     19 C19       -14.1440    7.0510   48.3310 C.3       1 UNK         0.0000 
     20 H20       -14.0635    5.4227   50.7696 H         1 UNK         0.0000 
     21 H21       -15.5097   -0.5871   50.6974 H         1 UNK         0.0000 
     22 H22       -13.6245   -0.3998   54.5031 H         1 UNK         0.0000 
     23 H23       -13.5957   -2.5587   55.6602 H         1 UNK         0.0000 
     24 H24       -16.6785   -1.7989   51.8303 H         1 UNK         0.0000 
     25 H25       -14.4503    2.8556   51.6222 H         1 UNK         0.0000 
     26 H26       -15.9276    0.2775   48.5087 H         1 UNK         0.0000 
     27 H27       -15.8496    2.1380   46.9009 H         1 UNK         0.0000 
     28 H28       -14.2464    7.6694   49.2227 H         1 UNK         0.0000 
     29 H29       -14.8579    7.4340   47.6018 H         1 UNK         0.0000 
     30 H30       -16.7589   -3.9442   53.0908 H         1 UNK         0.0000 
     31 C31       -11.1482    8.8577   46.8051 C.3       1 UNK         0.0000 
     32 C32       -12.5333    8.6808   47.4476 C.3       1 UNK         0.0000 
     33 N33       -12.8093    7.2014   47.7609 N.4       1 UNK         0.0000 
     34 C34       -12.6753    6.3372   46.4968 C.3       1 UNK         0.0000 
     35 C35       -11.2902    6.5141   45.8542 C.3       1 UNK         0.0000 
     36 C36       -11.0140    7.9935   45.5409 C.3       1 UNK         0.0000 
     37 H37       -10.3582    8.5678   47.5390 H         1 UNK         0.0000 
     38 H38       -10.9792    9.9328   46.5521 H         1 UNK         0.0000 
     39 H39       -13.3175    9.0660   46.7522 H         1 UNK         0.0000 
     40 H40       -12.6005    9.2882   48.3831 H         1 UNK         0.0000 
     41 H41       -12.8402    5.2884   46.7434 H         1 UNK         0.0000 
     42 H42       -13.4464    6.6204   45.7803 H         1 UNK         0.0000 
     43 H43       -10.5060    6.1289   46.5495 H         1 UNK         0.0000 
     44 H44       -11.2230    5.9068   44.9187 H         1 UNK         0.0000 
     45 H45       -11.7365    8.3508   44.7680 H         1 UNK         0.0000 
     46 H46        -9.9905    8.1074   45.1075 H         1 UNK         0.0000 
     47 H47       -12.1321    6.8849   48.4400 H         1 UNK         0.0000 
     48 C48       -15.2213   -7.1707   56.4759 C.ar      1 UNK         0.0000 
     49 C49       -14.3918   -6.9894   55.3570 C.ar      1 UNK         0.0000 
     50 C50       -14.3776   -5.7558   54.6857 C.ar      1 UNK         0.0000 
     51 C51       -15.1929   -4.7034   55.1334 C.ar      1 UNK         0.0000 
     52 C52       -16.0225   -4.8845   56.2522 C.ar      1 UNK         0.0000 
     53 C53       -16.0367   -6.1183   56.9236 C.ar      1 UNK         0.0000 
     54 H54       -15.2324   -8.1398   57.0032 H         1 UNK         0.0000 
     55 H55       -13.7513   -7.8163   55.0054 H         1 UNK         0.0000 
     56 H56       -13.7259   -5.6134   53.8067 H         1 UNK         0.0000 
     57 H57       -16.6629   -4.0578   56.6039 H         1 UNK         0.0000 
     58 H58       -16.6883   -6.2607   57.8025 H         1 UNK         0.0000 
@<TRIPOS>BOND
     1    1    3 ar   
     2    1   15 ar   
     3    1   18 ar   
     4    2    4 1    
     5    2   15 ar   
     6    2   16 ar   
     7    3    7 ar   
     8    3   20 1    
     9    4    5 am   BACKBONE|DICT|INTERRES
    10    4   21 1    
    11    5    8 2    
    12    5    9 1    
    13    6    7 ar   
    14    6   18 ar   
    15    7   19 1    
    16    9   10 ar   
    17    9   14 ar   
    18   10   11 ar   
    19   10   22 1    
    20   11   12 ar   
    21   11   23 1    
    22   12   13 ar   
    23   12   51 1    
    24   13   14 ar   
    25   13   30 1    
    26   14   24 1    
    27   15   25 1    
    28   16   17 ar   
    29   16   26 1    
    30   17   18 ar   
    31   17   27 1    
    32   19   28 1    
    33   19   29 1    
    34   19   33 1    
    35   31   32 1    
    36   31   36 1    
    37   31   37 1    
    38   31   38 1    
    39   32   33 1    
    40   32   39 1    
    41   32   40 1    
    42   33   34 1    
    43   33   47 1    
    44   34   35 1    
    45   34   41 1    
    46   34   42 1    
    47   35   36 1    
    48   35   43 1    
    49   35   44 1    
    50   36   45 1    
    51   36   46 1    
    52   48   49 ar   
    53   48   53 ar   
    54   48   54 1    
    55   49   50 ar   
    56   49   55 1    
    57   50   51 ar   
    58   50   56 1    
    59   51   52 ar   
    60   52   53 ar   
    61   52   57 1    
    62   53   58 1    
@<TRIPOS>SUBSTRUCTURE
     1 UNK         1 GROUP             0       ****    0 ROOT    
